REMARK  Name = 13U
REMARK  7 active torsions:
REMARK  status: ('A' for Active; 'I' for Inactive)
REMARK    1  A    between atoms: C_1  and  C_3
REMARK    2  A    between atoms: C_3  and  N_4
REMARK    3  A    between atoms: N_4  and  C_5
REMARK    4  A    between atoms: C_14  and  C_15
REMARK    5  A    between atoms: N_20  and  C_21
REMARK    6  A    between atoms: C_21  and  C_22
REMARK    7  A    between atoms: C_25  and  C_26
REMARK                            x       y       z     vdW  Elec       q    Type
REMARK                         _______ _______ _______ _____ _____    ______ ____
ROOT
ATOM      1  C   UNL     1      -1.667   0.699  -0.185  0.00  0.00    +0.000 C 
ATOM      2  O   UNL     1      -1.004  -0.287   0.057  0.00  0.00    +0.000 OA
ATOM      3  N   UNL     1      -1.060   1.885  -0.391  0.00  0.00    +0.000 N 
ATOM      4  C   UNL     1       0.397   2.107  -0.445  0.00  0.00    +0.000 C 
ATOM      5  C   UNL     1       0.584   3.600  -0.078  0.00  0.00    +0.000 C 
ATOM      6  C   UNL     1      -0.647   4.247  -0.766  0.00  0.00    +0.000 C 
ATOM      7  C   UNL     1      -1.741   3.171  -0.600  0.00  0.00    +0.000 C 
ENDROOT
BRANCH   4   8
ATOM      8  C   UNL     1       1.099   1.228   0.557  0.00  0.00    +0.000 C 
ATOM      9  O   UNL     1       0.530   0.896   1.576  0.00  0.00    +0.000 OA
ATOM     10  N   UNL     1       2.357   0.807   0.320  0.00  0.00    +0.000 N 
ATOM     11  H   UNL     1       2.812   1.072  -0.495  0.00  0.00    +0.000 HD
BRANCH  10  12
ATOM     12  C   UNL     1       3.037  -0.052   1.292  0.00  0.00    +0.000 C 
BRANCH  12  13
ATOM     13  C   UNL     1       4.421  -0.379   0.792  0.00  0.00    +0.000 A 
ATOM     14  C   UNL     1       4.624  -1.503   0.011  0.00  0.00    +0.000 A 
ATOM     15  C   UNL     1       5.888  -1.803  -0.455  0.00  0.00    +0.000 A 
ATOM     16  C   UNL     1       6.963  -0.978  -0.127  0.00  0.00    +0.000 A 
ATOM     17  C   UNL     1       6.753   0.150   0.665  0.00  0.00    +0.000 A 
ATOM     18  C   UNL     1       5.484   0.443   1.120  0.00  0.00    +0.000 A 
BRANCH  16  19
ATOM     19  C   UNL     1       8.323  -1.299  -0.619  0.00  0.00    +0.000 C 
ATOM     20  N   UNL     1       9.325  -0.527  -0.311  0.00  0.00    +0.000 NA
ATOM     21  N   UNL     1       8.527  -2.414  -1.401  0.00  0.00    +0.000 N 
ATOM     22  H   UNL     1      10.216  -0.737  -0.633  0.00  0.00    +0.000 HD
ATOM     23  H   UNL     1       7.780  -2.989  -1.631  0.00  0.00    +0.000 HD
ATOM     24  H   UNL     1       9.418  -2.624  -1.723  0.00  0.00    +0.000 HD
ENDBRANCH  16  19
ENDBRANCH  12  13
ENDBRANCH  10  12
ENDBRANCH   4   8
BRANCH   1  25
ATOM     25  C   UNL     1      -3.169   0.599  -0.255  0.00  0.00    +0.000 C 
BRANCH  25  26
ATOM     26  N   UNL     1      -3.580  -0.787   0.004  0.00  0.00    +0.000 NA
ATOM     27  H   UNL     1      -3.130  -1.423  -0.638  0.00  0.00    +0.000 HD
BRANCH  26  28
ATOM     28  C   UNL     1      -5.041  -0.923  -0.057  0.00  0.00    +0.000 C 
ATOM     29  C   UNL     1      -5.477  -2.123   0.786  0.00  0.00    +0.000 C 
ATOM     30  C   UNL     1      -6.554  -1.684   1.780  0.00  0.00    +0.000 C 
ATOM     31  C   UNL     1      -7.885  -1.512   1.046  0.00  0.00    +0.000 C 
ATOM     32  C   UNL     1      -7.862  -0.207   0.248  0.00  0.00    +0.000 C 
ATOM     33  C   UNL     1      -7.882  -0.523  -1.249  0.00  0.00    +0.000 C 
ATOM     34  C   UNL     1      -6.908  -1.666  -1.541  0.00  0.00    +0.000 C 
ATOM     35  C   UNL     1      -5.474  -1.135  -1.509  0.00  0.00    +0.000 C 
ENDBRANCH  26  28
ENDBRANCH  25  26
ENDBRANCH   1  25
TORSDOF 7
