REMARK  Name = NAD
REMARK  16 active torsions:
REMARK  status: ('A' for Active; 'I' for Inactive)
REMARK    1  A    between atoms: P_1  and  O_3
REMARK    2  A    between atoms: P_1  and  O_4
REMARK    3  A    between atoms: P_1  and  O_23
REMARK    4  A    between atoms: O_4  and  C_5
REMARK    5  A    between atoms: C_5  and  C_6
REMARK    6  A    between atoms: C_8  and  O_9
REMARK    7  A    between atoms: C_10  and  O_11
REMARK    8  A    between atoms: C_12  and  N_13
REMARK    9  A    between atoms: O_23  and  P_24
REMARK   10  A    between atoms: P_24  and  O_27
REMARK   11  A    between atoms: O_27  and  C_28
REMARK   12  A    between atoms: C_28  and  C_29
REMARK   13  A    between atoms: C_31  and  O_32
REMARK   14  A    between atoms: C_33  and  O_34
REMARK   15  A    between atoms: C_35  and  N_36
REMARK   16  A    between atoms: C_38  and  C_39
REMARK                            x       y       z     vdW  Elec       q    Type
REMARK                         _______ _______ _______ _____ _____    ______ ____
ROOT
ATOM      1  P   UNL     1      -0.887  -0.813  -0.676  0.00  0.00    +0.000 P 
ATOM      2  O   UNL     1      -1.258   0.102  -1.778  0.00  0.00    +0.000 OA
ENDROOT
BRANCH   1   3
ATOM      3  O   UNL     1      -0.249  -2.159  -1.287  0.00  0.00    +0.000 OA
ATOM      4  H   UNL     1      -0.021  -2.726  -0.537  0.00  0.00    +0.000 HD
ENDBRANCH   1   3
BRANCH   1   5
ATOM      5  O   UNL     1      -2.200  -1.182   0.180  0.00  0.00    +0.000 OA
BRANCH   5   6
ATOM      6  C   UNL     1      -3.159  -1.706  -0.741  0.00  0.00    +0.000 C 
BRANCH   6   7
ATOM      7  C   UNL     1      -4.437  -2.079   0.012  0.00  0.00    +0.000 C 
ATOM      8  O   UNL     1      -5.068  -0.893   0.523  0.00  0.00    +0.000 OA
ATOM      9  C   UNL     1      -5.434  -2.754  -0.950  0.00  0.00    +0.000 C 
ATOM     10  C   UNL     1      -6.693  -1.850  -0.881  0.00  0.00    +0.000 C 
ATOM     11  C   UNL     1      -6.493  -1.116   0.469  0.00  0.00    +0.000 C 
BRANCH  11  12
ATOM     12  N   UNL     1      -7.216   0.158   0.479  0.00  0.00    +0.000 N 
ATOM     13  C   UNL     1      -6.723   1.368   0.089  0.00  0.00    +0.000 A 
ATOM     14  N   UNL     1      -7.635   2.286   0.229  0.00  0.00    +0.000 NA
ATOM     15  C   UNL     1      -8.768   1.725   0.717  0.00  0.00    +0.000 A 
ATOM     16  C   UNL     1     -10.042   2.209   1.059  0.00  0.00    +0.000 A 
ATOM     17  N   UNL     1     -10.352   3.550   0.916  0.00  0.00    +0.000 N 
ATOM     18  N   UNL     1     -10.942   1.348   1.524  0.00  0.00    +0.000 NA
ATOM     19  C   UNL     1     -10.655   0.067   1.663  0.00  0.00    +0.000 A 
ATOM     20  N   UNL     1      -9.476  -0.431   1.355  0.00  0.00    +0.000 NA
ATOM     21  C   UNL     1      -8.514   0.352   0.878  0.00  0.00    +0.000 A 
ATOM     22  H   UNL     1      -9.686   4.168   0.576  0.00  0.00    +0.000 HD
ATOM     23  H   UNL     1     -11.235   3.872   1.157  0.00  0.00    +0.000 HD
ENDBRANCH  11  12
BRANCH   9  24
ATOM     24  O   UNL     1      -5.745  -4.078  -0.512  0.00  0.00    +0.000 OA
ATOM     25  H   UNL     1      -6.415  -4.423  -1.117  0.00  0.00    +0.000 HD
ENDBRANCH   9  24
BRANCH  10  26
ATOM     26  O   UNL     1      -7.885  -2.638  -0.862  0.00  0.00    +0.000 OA
ATOM     27  H   UNL     1      -7.951  -3.066  -1.726  0.00  0.00    +0.000 HD
ENDBRANCH  10  26
ENDBRANCH   6   7
ENDBRANCH   5   6
ENDBRANCH   1   5
BRANCH   1  28
ATOM     28  O   UNL     1       0.191  -0.093   0.279  0.00  0.00    +0.000 OA
BRANCH  28  29
ATOM     29  P   UNL     1       1.204   0.707  -0.683  0.00  0.00    +0.000 P 
ATOM     30  O   UNL     1       0.556   2.042  -1.115  0.00  0.00    +0.000 OA
ATOM     31  O   UNL     1       1.509  -0.146  -1.934  0.00  0.00    +0.000 OA
BRANCH  29  32
ATOM     32  O   UNL     1       2.573   1.007   0.109  0.00  0.00    +0.000 OA
BRANCH  32  33
ATOM     33  C   UNL     1       3.469   1.610  -0.827  0.00  0.00    +0.000 C 
BRANCH  33  34
ATOM     34  C   UNL     1       4.797   1.921  -0.135  0.00  0.00    +0.000 C 
ATOM     35  O   UNL     1       5.467   0.698   0.241  0.00  0.00    +0.000 OA
ATOM     36  C   UNL     1       5.767   2.618  -1.115  0.00  0.00    +0.000 C 
ATOM     37  C   UNL     1       7.154   2.040  -0.746  0.00  0.00    +0.000 C 
ATOM     38  C   UNL     1       6.854   1.062   0.411  0.00  0.00    +0.000 C 
BRANCH  38  39
ATOM     39  N   UNL     1       7.708  -0.125   0.310  0.00  0.00    +0.000 N 
ATOM     40  C   UNL     1       8.763  -0.222   1.093  0.00  0.00    +0.000 A 
ATOM     41  C   UNL     1       9.601  -1.335   1.017  0.00  0.00    +0.000 A 
ATOM     42  C   UNL     1       9.296  -2.352   0.104  0.00  0.00    +0.000 A 
ATOM     43  C   UNL     1       8.173  -2.204  -0.690  0.00  0.00    +0.000 A 
ATOM     44  C   UNL     1       7.395  -1.067  -0.559  0.00  0.00    +0.000 A 
BRANCH  41  45
ATOM     45  C   UNL     1      10.789  -1.442   1.891  0.00  0.00    +0.000 C 
ATOM     46  O   UNL     1      11.045  -0.553   2.680  0.00  0.00    +0.000 OA
ATOM     47  N   UNL     1      11.588  -2.524   1.813  0.00  0.00    +0.000 N 
ATOM     48  H   UNL     1      12.367  -2.594   2.386  0.00  0.00    +0.000 HD
ATOM     49  H   UNL     1      11.382  -3.235   1.186  0.00  0.00    +0.000 HD
ENDBRANCH  41  45
ENDBRANCH  38  39
BRANCH  36  50
ATOM     50  O   UNL     1       5.745   4.033  -0.921  0.00  0.00    +0.000 OA
ATOM     51  H   UNL     1       6.367   4.412  -1.557  0.00  0.00    +0.000 HD
ENDBRANCH  36  50
BRANCH  37  52
ATOM     52  O   UNL     1       8.031   3.082  -0.314  0.00  0.00    +0.000 OA
ATOM     53  H   UNL     1       8.130   3.691  -1.060  0.00  0.00    +0.000 HD
ENDBRANCH  37  52
ENDBRANCH  33  34
ENDBRANCH  32  33
ENDBRANCH  29  32
ENDBRANCH  28  29
ENDBRANCH   1  28
TORSDOF 16
